* NGSPICE file created from digital_locked_loop.ext - technology: sky130A

* Black-box entry subcircuit for sky130_fd_sc_hd__a32o_1 abstract view
.subckt sky130_fd_sc_hd__a32o_1 A1 A2 A3 B1 B2 VGND VNB VPB VPWR X
.ends

* Black-box entry subcircuit for sky130_fd_sc_hd__nand3_1 abstract view
.subckt sky130_fd_sc_hd__nand3_1 A B C VGND VNB VPB VPWR Y
.ends

* Black-box entry subcircuit for sky130_fd_sc_hd__decap_8 abstract view
.subckt sky130_fd_sc_hd__decap_8 VGND VNB VPB VPWR
.ends

* Black-box entry subcircuit for sky130_fd_sc_hd__inv_1 abstract view
.subckt sky130_fd_sc_hd__inv_1 A VGND VNB VPB VPWR Y
.ends

* Black-box entry subcircuit for sky130_fd_sc_hd__decap_3 abstract view
.subckt sky130_fd_sc_hd__decap_3 VGND VNB VPB VPWR
.ends

* Black-box entry subcircuit for sky130_fd_sc_hd__and2_1 abstract view
.subckt sky130_fd_sc_hd__and2_1 A B VGND VNB VPB VPWR X
.ends

* Black-box entry subcircuit for sky130_fd_sc_hd__o2bb2a_1 abstract view
.subckt sky130_fd_sc_hd__o2bb2a_1 A1_N A2_N B1 B2 VGND VNB VPB VPWR X
.ends

* Black-box entry subcircuit for sky130_fd_sc_hd__o31a_1 abstract view
.subckt sky130_fd_sc_hd__o31a_1 A1 A2 A3 B1 VGND VNB VPB VPWR X
.ends

* Black-box entry subcircuit for sky130_fd_sc_hd__einvp_1 abstract view
.subckt sky130_fd_sc_hd__einvp_1 A TE VGND VNB VPB VPWR Z
.ends

* Black-box entry subcircuit for sky130_fd_sc_hd__decap_4 abstract view
.subckt sky130_fd_sc_hd__decap_4 VGND VNB VPB VPWR
.ends

* Black-box entry subcircuit for sky130_fd_sc_hd__fill_2 abstract view
.subckt sky130_fd_sc_hd__fill_2 VGND VNB VPB VPWR
.ends

* Black-box entry subcircuit for sky130_fd_sc_hd__decap_6 abstract view
.subckt sky130_fd_sc_hd__decap_6 VGND VNB VPB VPWR
.ends

* Black-box entry subcircuit for sky130_fd_sc_hd__buf_2 abstract view
.subckt sky130_fd_sc_hd__buf_2 A VGND VNB VPB VPWR X
.ends

* Black-box entry subcircuit for sky130_fd_sc_hd__einvn_2 abstract view
.subckt sky130_fd_sc_hd__einvn_2 A TE_B VGND VNB VPB VPWR Z
.ends

* Black-box entry subcircuit for sky130_fd_sc_hd__diode_2 abstract view
.subckt sky130_fd_sc_hd__diode_2 DIODE VGND VNB VPB VPWR
.ends

* Black-box entry subcircuit for sky130_fd_sc_hd__fill_1 abstract view
.subckt sky130_fd_sc_hd__fill_1 VGND VNB VPB VPWR
.ends

* Black-box entry subcircuit for sky130_fd_sc_hd__tapvpwrvgnd_1 abstract view
.subckt sky130_fd_sc_hd__tapvpwrvgnd_1 VGND VPWR
.ends

* Black-box entry subcircuit for sky130_fd_sc_hd__a21boi_1 abstract view
.subckt sky130_fd_sc_hd__a21boi_1 A1 A2 B1_N VGND VNB VPB VPWR Y
.ends

* Black-box entry subcircuit for sky130_fd_sc_hd__o2111a_1 abstract view
.subckt sky130_fd_sc_hd__o2111a_1 A1 A2 B1 C1 D1 VGND VNB VPB VPWR X
.ends

* Black-box entry subcircuit for sky130_fd_sc_hd__xnor2_1 abstract view
.subckt sky130_fd_sc_hd__xnor2_1 A B VGND VNB VPB VPWR Y
.ends

* Black-box entry subcircuit for sky130_fd_sc_hd__nand2b_1 abstract view
.subckt sky130_fd_sc_hd__nand2b_1 A_N B VGND VNB VPB VPWR Y
.ends

* Black-box entry subcircuit for sky130_fd_sc_hd__nand2_1 abstract view
.subckt sky130_fd_sc_hd__nand2_1 A B VGND VNB VPB VPWR Y
.ends

* Black-box entry subcircuit for sky130_fd_sc_hd__clkbuf_2 abstract view
.subckt sky130_fd_sc_hd__clkbuf_2 A VGND VNB VPB VPWR X
.ends

* Black-box entry subcircuit for sky130_fd_sc_hd__einvn_1 abstract view
.subckt sky130_fd_sc_hd__einvn_1 A TE_B VGND VNB VPB VPWR Z
.ends

* Black-box entry subcircuit for sky130_fd_sc_hd__a21o_1 abstract view
.subckt sky130_fd_sc_hd__a21o_1 A1 A2 B1 VGND VNB VPB VPWR X
.ends

* Black-box entry subcircuit for sky130_fd_sc_hd__o211a_1 abstract view
.subckt sky130_fd_sc_hd__o211a_1 A1 A2 B1 C1 VGND VNB VPB VPWR X
.ends

* Black-box entry subcircuit for sky130_fd_sc_hd__dfrtp_1 abstract view
.subckt sky130_fd_sc_hd__dfrtp_1 CLK D RESET_B VGND VNB VPB VPWR Q
.ends

* Black-box entry subcircuit for sky130_fd_sc_hd__einvp_2 abstract view
.subckt sky130_fd_sc_hd__einvp_2 A TE VGND VNB VPB VPWR Z
.ends

* Black-box entry subcircuit for sky130_fd_sc_hd__a22o_1 abstract view
.subckt sky130_fd_sc_hd__a22o_1 A1 A2 B1 B2 VGND VNB VPB VPWR X
.ends

* Black-box entry subcircuit for sky130_fd_sc_hd__nor2_1 abstract view
.subckt sky130_fd_sc_hd__nor2_1 A B VGND VNB VPB VPWR Y
.ends

* Black-box entry subcircuit for sky130_fd_sc_hd__inv_2 abstract view
.subckt sky130_fd_sc_hd__inv_2 A VGND VNB VPB VPWR Y
.ends

* Black-box entry subcircuit for sky130_ef_sc_hd__decap_12 abstract view
.subckt sky130_ef_sc_hd__decap_12 VGND VNB VPB VPWR
.ends

* Black-box entry subcircuit for sky130_fd_sc_hd__o22a_1 abstract view
.subckt sky130_fd_sc_hd__o22a_1 A1 A2 B1 B2 VGND VNB VPB VPWR X
.ends

* Black-box entry subcircuit for sky130_fd_sc_hd__clkbuf_1 abstract view
.subckt sky130_fd_sc_hd__clkbuf_1 A VGND VNB VPB VPWR X
.ends

* Black-box entry subcircuit for sky130_fd_sc_hd__o21ai_1 abstract view
.subckt sky130_fd_sc_hd__o21ai_1 A1 A2 B1 VGND VNB VPB VPWR Y
.ends

* Black-box entry subcircuit for sky130_fd_sc_hd__mux2_1 abstract view
.subckt sky130_fd_sc_hd__mux2_1 A0 A1 S VGND VNB VPB VPWR X
.ends

* Black-box entry subcircuit for sky130_fd_sc_hd__and2_2 abstract view
.subckt sky130_fd_sc_hd__and2_2 A B VGND VNB VPB VPWR X
.ends

* Black-box entry subcircuit for sky130_fd_sc_hd__nor2_2 abstract view
.subckt sky130_fd_sc_hd__nor2_2 A B VGND VNB VPB VPWR Y
.ends

* Black-box entry subcircuit for sky130_fd_sc_hd__xor2_1 abstract view
.subckt sky130_fd_sc_hd__xor2_1 A B VGND VNB VPB VPWR X
.ends

* Black-box entry subcircuit for sky130_fd_sc_hd__o21a_1 abstract view
.subckt sky130_fd_sc_hd__o21a_1 A1 A2 B1 VGND VNB VPB VPWR X
.ends

* Black-box entry subcircuit for sky130_fd_sc_hd__nand2_2 abstract view
.subckt sky130_fd_sc_hd__nand2_2 A B VGND VNB VPB VPWR Y
.ends

* Black-box entry subcircuit for sky130_fd_sc_hd__nand4_1 abstract view
.subckt sky130_fd_sc_hd__nand4_1 A B C D VGND VNB VPB VPWR Y
.ends

* Black-box entry subcircuit for sky130_fd_sc_hd__a21oi_1 abstract view
.subckt sky130_fd_sc_hd__a21oi_1 A1 A2 B1 VGND VNB VPB VPWR Y
.ends

* Black-box entry subcircuit for sky130_fd_sc_hd__dfrtp_4 abstract view
.subckt sky130_fd_sc_hd__dfrtp_4 CLK D RESET_B VGND VNB VPB VPWR Q
.ends

* Black-box entry subcircuit for sky130_fd_sc_hd__and3_1 abstract view
.subckt sky130_fd_sc_hd__and3_1 A B C VGND VNB VPB VPWR X
.ends

* Black-box entry subcircuit for sky130_fd_sc_hd__dfrtp_2 abstract view
.subckt sky130_fd_sc_hd__dfrtp_2 CLK D RESET_B VGND VNB VPB VPWR Q
.ends

* Black-box entry subcircuit for sky130_fd_sc_hd__buf_1 abstract view
.subckt sky130_fd_sc_hd__buf_1 A VGND VNB VPB VPWR X
.ends

* Black-box entry subcircuit for sky130_fd_sc_hd__einvp_4 abstract view
.subckt sky130_fd_sc_hd__einvp_4 A TE VGND VNB VPB VPWR Z
.ends

* Black-box entry subcircuit for sky130_fd_sc_hd__o21ba_1 abstract view
.subckt sky130_fd_sc_hd__o21ba_1 A1 A2 B1_N VGND VNB VPB VPWR X
.ends

* Black-box entry subcircuit for sky130_fd_sc_hd__dlymetal6s2s_1 abstract view
.subckt sky130_fd_sc_hd__dlymetal6s2s_1 A VGND VNB VPB VPWR X
.ends

* Black-box entry subcircuit for sky130_fd_sc_hd__and2b_1 abstract view
.subckt sky130_fd_sc_hd__and2b_1 A_N B VGND VNB VPB VPWR X
.ends

* Black-box entry subcircuit for sky130_fd_sc_hd__a31o_1 abstract view
.subckt sky130_fd_sc_hd__a31o_1 A1 A2 A3 B1 VGND VNB VPB VPWR X
.ends

* Black-box entry subcircuit for sky130_fd_sc_hd__einvn_4 abstract view
.subckt sky130_fd_sc_hd__einvn_4 A TE_B VGND VNB VPB VPWR Z
.ends

* Black-box entry subcircuit for sky130_fd_sc_hd__a211o_1 abstract view
.subckt sky130_fd_sc_hd__a211o_1 A1 A2 B1 C1 VGND VNB VPB VPWR X
.ends

* Black-box entry subcircuit for sky130_fd_sc_hd__and3b_1 abstract view
.subckt sky130_fd_sc_hd__and3b_1 A_N B C VGND VNB VPB VPWR X
.ends

* Black-box entry subcircuit for sky130_fd_sc_hd__o221a_1 abstract view
.subckt sky130_fd_sc_hd__o221a_1 A1 A2 B1 B2 C1 VGND VNB VPB VPWR X
.ends

* Black-box entry subcircuit for sky130_fd_sc_hd__nand3b_1 abstract view
.subckt sky130_fd_sc_hd__nand3b_1 A_N B C VGND VNB VPB VPWR Y
.ends

* Black-box entry subcircuit for sky130_fd_sc_hd__nand4b_1 abstract view
.subckt sky130_fd_sc_hd__nand4b_1 A_N B C D VGND VNB VPB VPWR Y
.ends

* Black-box entry subcircuit for sky130_fd_sc_hd__and4b_1 abstract view
.subckt sky130_fd_sc_hd__and4b_1 A_N B C D VGND VNB VPB VPWR X
.ends

* Black-box entry subcircuit for sky130_fd_sc_hd__a32o_2 abstract view
.subckt sky130_fd_sc_hd__a32o_2 A1 A2 A3 B1 B2 VGND VNB VPB VPWR X
.ends

* Black-box entry subcircuit for sky130_fd_sc_hd__inv_6 abstract view
.subckt sky130_fd_sc_hd__inv_6 A VGND VNB VPB VPWR Y
.ends

* Black-box entry subcircuit for sky130_fd_sc_hd__clkinv_2 abstract view
.subckt sky130_fd_sc_hd__clkinv_2 A VGND VNB VPB VPWR Y
.ends

* Black-box entry subcircuit for sky130_fd_sc_hd__clkinv_8 abstract view
.subckt sky130_fd_sc_hd__clkinv_8 A VGND VNB VPB VPWR Y
.ends

* Black-box entry subcircuit for sky130_fd_sc_hd__xor2_2 abstract view
.subckt sky130_fd_sc_hd__xor2_2 A B VGND VNB VPB VPWR X
.ends

* Black-box entry subcircuit for sky130_fd_sc_hd__conb_1 abstract view
.subckt sky130_fd_sc_hd__conb_1 VGND VNB VPB VPWR HI LO
.ends

* Black-box entry subcircuit for sky130_fd_sc_hd__o32a_1 abstract view
.subckt sky130_fd_sc_hd__o32a_1 A1 A2 A3 B1 B2 VGND VNB VPB VPWR X
.ends

* Black-box entry subcircuit for sky130_fd_sc_hd__or2_1 abstract view
.subckt sky130_fd_sc_hd__or2_1 A B VGND VNB VPB VPWR X
.ends

.subckt digital_locked_loop VGND VPWR clockp[0] clockp[1] dco div[0] div[1] div[2]
+ div[3] div[4] enable ext_trim[0] ext_trim[10] ext_trim[11] ext_trim[12] ext_trim[13]
+ ext_trim[14] ext_trim[15] ext_trim[16] ext_trim[17] ext_trim[18] ext_trim[19] ext_trim[1]
+ ext_trim[20] ext_trim[21] ext_trim[22] ext_trim[23] ext_trim[24] ext_trim[25] ext_trim[2]
+ ext_trim[3] ext_trim[4] ext_trim[5] ext_trim[6] ext_trim[7] ext_trim[8] ext_trim[9]
+ osc resetb
X_363_ _176_ _177_ _181_ ext_trim[22] net29 VGND VGND VPWR VPWR ringosc.dstage\[9\].id.trim\[1\]
+ sky130_fd_sc_hd__a32o_1
X_294_ dll_control.count0\[0\] net7 _135_ VGND VGND VPWR VPWR _026_ sky130_fd_sc_hd__nand3_1
XFILLER_0_3_17 VGND VGND VPWR VPWR sky130_fd_sc_hd__decap_8
Xringosc.dstage\[1\].id.delayint0 ringosc.dstage\[1\].id.d1 VGND VGND VPWR VPWR ringosc.dstage\[1\].id.d2
+ sky130_fd_sc_hd__inv_1
XFILLER_0_18_29 VGND VGND VPWR VPWR sky130_fd_sc_hd__decap_3
X_346_ _094_ _149_ VGND VGND VPWR VPWR _172_ sky130_fd_sc_hd__and2_1
X_277_ net1 _128_ dll_control.tint\[0\] _105_ VGND VGND VPWR VPWR _033_ sky130_fd_sc_hd__o2bb2a_1
X_200_ dll_control.count0\[3\] dll_control.count1\[3\] VGND VGND VPWR VPWR _056_ sky130_fd_sc_hd__and2_1
X_329_ net21 _096_ _107_ _159_ VGND VGND VPWR VPWR ringosc.dstage\[10\].id.trim\[0\]
+ sky130_fd_sc_hd__o31a_1
Xringosc.dstage\[11\].id.delayen1 ringosc.dstage\[11\].id.d0 ringosc.dstage\[11\].id.trim\[1\]
+ VGND VGND VPWR VPWR ringosc.dstage\[11\].id.d1 sky130_fd_sc_hd__einvp_1
XFILLER_0_10_85 VGND VGND VPWR VPWR sky130_fd_sc_hd__decap_4
XFILLER_0_9_38 VGND VGND VPWR VPWR sky130_fd_sc_hd__decap_4
XFILLER_0_19_169 VGND VGND VPWR VPWR sky130_fd_sc_hd__fill_2
XFILLER_0_16_128 VGND VGND VPWR VPWR sky130_fd_sc_hd__fill_2
XFILLER_0_16_106 VGND VGND VPWR VPWR sky130_fd_sc_hd__decap_6
Xfanout7 net8 VGND VGND VPWR VPWR net7 sky130_fd_sc_hd__buf_2
Xringosc.dstage\[10\].id.delayenb0 ringosc.dstage\[10\].id.ts ringosc.dstage\[10\].id.trim\[0\]
+ VGND VGND VPWR VPWR ringosc.dstage\[10\].id.out sky130_fd_sc_hd__einvn_2
XFILLER_0_21_186 VGND VGND VPWR VPWR sky130_fd_sc_hd__decap_4
Xringosc.dstage\[9\].id.delayenb0 ringosc.dstage\[9\].id.ts ringosc.dstage\[9\].id.trim\[0\]
+ VGND VGND VPWR VPWR ringosc.dstage\[10\].id.in sky130_fd_sc_hd__einvn_2
XANTENNA__397__CLK dll_control.clock VGND VGND VPWR VPWR sky130_fd_sc_hd__diode_2
XFILLER_0_6_17 VGND VGND VPWR VPWR sky130_fd_sc_hd__fill_1
XFILLER_0_8_103 VGND VGND VPWR VPWR sky130_fd_sc_hd__decap_3
XTAP_112 VGND VPWR sky130_fd_sc_hd__tapvpwrvgnd_1
XTAP_101 VGND VPWR sky130_fd_sc_hd__tapvpwrvgnd_1
XANTENNA__412__CLK dll_control.clock VGND VGND VPWR VPWR sky130_fd_sc_hd__diode_2
XFILLER_0_7_82 VGND VGND VPWR VPWR sky130_fd_sc_hd__fill_2
X_362_ net10 _046_ _143_ VGND VGND VPWR VPWR _181_ sky130_fd_sc_hd__nand3_1
X_293_ _135_ _138_ net7 VGND VGND VPWR VPWR _027_ sky130_fd_sc_hd__a21boi_1
XFILLER_0_13_85 VGND VGND VPWR VPWR sky130_fd_sc_hd__decap_4
XFILLER_0_3_29 VGND VGND VPWR VPWR sky130_fd_sc_hd__decap_4
X_345_ net5 _146_ _154_ _168_ _170_ VGND VGND VPWR VPWR _171_ sky130_fd_sc_hd__o2111a_1
X_276_ _116_ _117_ VGND VGND VPWR VPWR _128_ sky130_fd_sc_hd__xnor2_1
X_414_ dll_control.clock VGND VGND VPWR VPWR clockp[0] sky130_fd_sc_hd__buf_2
XFILLER_0_4_83 VGND VGND VPWR VPWR sky130_fd_sc_hd__fill_1
X_328_ ext_trim[10] net21 VGND VGND VPWR VPWR _159_ sky130_fd_sc_hd__nand2b_1
X_259_ net4 net5 VGND VGND VPWR VPWR _115_ sky130_fd_sc_hd__nand2_1
XFILLER_0_10_20 VGND VGND VPWR VPWR sky130_fd_sc_hd__decap_8
XFILLER_0_9_28 VGND VGND VPWR VPWR sky130_fd_sc_hd__fill_2
XFILLER_0_9_17 VGND VGND VPWR VPWR sky130_fd_sc_hd__decap_3
XFILLER_0_19_40 VGND VGND VPWR VPWR sky130_fd_sc_hd__fill_2
XFILLER_0_10_97 VGND VGND VPWR VPWR sky130_fd_sc_hd__decap_3
Xfanout8 _051_ VGND VGND VPWR VPWR net8 sky130_fd_sc_hd__clkbuf_2
XFILLER_0_15_151 VGND VGND VPWR VPWR sky130_fd_sc_hd__decap_3
XFILLER_0_1_62 VGND VGND VPWR VPWR sky130_fd_sc_hd__decap_6
XFILLER_0_21_154 VGND VGND VPWR VPWR sky130_fd_sc_hd__decap_3
XFILLER_0_21_121 VGND VGND VPWR VPWR sky130_fd_sc_hd__decap_8
Xringosc.dstage\[9\].id.delayenb1 ringosc.dstage\[9\].id.ts ringosc.dstage\[9\].id.trim\[1\]
+ VGND VGND VPWR VPWR ringosc.dstage\[9\].id.d1 sky130_fd_sc_hd__einvn_2
Xringosc.dstage\[10\].id.delayenb1 ringosc.dstage\[10\].id.ts ringosc.dstage\[10\].id.trim\[1\]
+ VGND VGND VPWR VPWR ringosc.dstage\[10\].id.d1 sky130_fd_sc_hd__einvn_1
XFILLER_0_16_85 VGND VGND VPWR VPWR sky130_fd_sc_hd__fill_1
XFILLER_0_13_9 VGND VGND VPWR VPWR sky130_fd_sc_hd__fill_1
XFILLER_0_6_29 VGND VGND VPWR VPWR sky130_fd_sc_hd__decap_4
XFILLER_0_12_187 VGND VGND VPWR VPWR sky130_fd_sc_hd__decap_3
XFILLER_0_5_107 VGND VGND VPWR VPWR sky130_fd_sc_hd__fill_1
XTAP_113 VGND VPWR sky130_fd_sc_hd__tapvpwrvgnd_1
XTAP_102 VGND VPWR sky130_fd_sc_hd__tapvpwrvgnd_1
X_361_ net29 ext_trim[21] _180_ VGND VGND VPWR VPWR ringosc.dstage\[8\].id.trim\[1\]
+ sky130_fd_sc_hd__a21o_1
X_292_ dll_control.count0\[1\] net14 VGND VGND VPWR VPWR _138_ sky130_fd_sc_hd__xnor2_1
XFILLER_0_4_162 VGND VGND VPWR VPWR sky130_fd_sc_hd__decap_4
XFILLER_0_13_75 VGND VGND VPWR VPWR sky130_fd_sc_hd__decap_6
XFILLER_0_1_165 VGND VGND VPWR VPWR sky130_fd_sc_hd__decap_3
X_344_ _115_ _145_ _160_ _169_ VGND VGND VPWR VPWR _170_ sky130_fd_sc_hd__o211a_1
X_275_ _046_ _127_ VGND VGND VPWR VPWR _034_ sky130_fd_sc_hd__xnor2_1
X_413_ dll_control.clock _042_ _022_ VGND VGND VPWR VPWR dll_control.count1\[4\] sky130_fd_sc_hd__dfrtp_1
XANTENNA__402__CLK dll_control.clock VGND VGND VPWR VPWR sky130_fd_sc_hd__diode_2
Xringosc.dstage\[4\].id.delayen0 ringosc.dstage\[4\].id.d2 ringosc.dstage\[4\].id.trim\[0\]
+ VGND VGND VPWR VPWR ringosc.dstage\[4\].id.out sky130_fd_sc_hd__einvp_2
X_327_ net27 ext_trim[9] _155_ _158_ VGND VGND VPWR VPWR ringosc.dstage\[9\].id.trim\[0\]
+ sky130_fd_sc_hd__a22o_1
XFILLER_0_19_63 VGND VGND VPWR VPWR sky130_fd_sc_hd__fill_1
X_258_ _112_ _113_ VGND VGND VPWR VPWR _114_ sky130_fd_sc_hd__nor2_1
XFILLER_0_10_54 VGND VGND VPWR VPWR sky130_fd_sc_hd__fill_1
X_189_ div[1] VGND VGND VPWR VPWR _050_ sky130_fd_sc_hd__inv_2
Xfanout9 dll_control.tint\[4\] VGND VGND VPWR VPWR net9 sky130_fd_sc_hd__buf_2
XFILLER_0_15_130 VGND VGND VPWR VPWR sky130_fd_sc_hd__decap_3
XFILLER_0_1_52 VGND VGND VPWR VPWR sky130_fd_sc_hd__fill_1
XFILLER_0_21_177 VGND VGND VPWR VPWR sky130_fd_sc_hd__decap_6
XFILLER_0_16_97 VGND VGND VPWR VPWR sky130_fd_sc_hd__fill_1
XFILLER_0_16_75 VGND VGND VPWR VPWR sky130_fd_sc_hd__decap_3
XFILLER_0_16_53 VGND VGND VPWR VPWR sky130_fd_sc_hd__fill_2
XFILLER_0_12_155 VGND VGND VPWR VPWR sky130_fd_sc_hd__fill_2
XFILLER_0_12_122 VGND VGND VPWR VPWR sky130_fd_sc_hd__decap_8
XFILLER_0_9_3 VGND VGND VPWR VPWR sky130_fd_sc_hd__decap_4
XTAP_114 VGND VPWR sky130_fd_sc_hd__tapvpwrvgnd_1
Xringosc.dstage\[9\].id.delaybuf0 ringosc.dstage\[8\].id.out VGND VGND VPWR VPWR ringosc.dstage\[9\].id.ts
+ sky130_fd_sc_hd__clkbuf_2
Xringosc.dstage\[5\].id.delayenb0 ringosc.dstage\[5\].id.ts ringosc.dstage\[5\].id.trim\[0\]
+ VGND VGND VPWR VPWR ringosc.dstage\[5\].id.out sky130_fd_sc_hd__einvn_2
XTAP_103 VGND VPWR sky130_fd_sc_hd__tapvpwrvgnd_1
Xringosc.dstage\[10\].id.delaybuf0 ringosc.dstage\[10\].id.in VGND VGND VPWR VPWR
+ ringosc.dstage\[10\].id.ts sky130_fd_sc_hd__clkbuf_2
XFILLER_0_5_119 VGND VGND VPWR VPWR sky130_ef_sc_hd__decap_12
X_360_ net13 _047_ _164_ _174_ VGND VGND VPWR VPWR _180_ sky130_fd_sc_hd__o31a_1
X_291_ _051_ _137_ VGND VGND VPWR VPWR _028_ sky130_fd_sc_hd__and2_1
XFILLER_0_4_141 VGND VGND VPWR VPWR sky130_fd_sc_hd__fill_1
XFILLER_0_4_174 VGND VGND VPWR VPWR sky130_fd_sc_hd__fill_2
XFILLER_0_4_185 VGND VGND VPWR VPWR sky130_fd_sc_hd__decap_4
XFILLER_0_7_73 VGND VGND VPWR VPWR sky130_fd_sc_hd__fill_1
XFILLER_0_13_98 VGND VGND VPWR VPWR sky130_fd_sc_hd__fill_2
X_343_ _046_ _096_ net5 _156_ VGND VGND VPWR VPWR _169_ sky130_fd_sc_hd__o22a_1
X_274_ _047_ _117_ _126_ _110_ VGND VGND VPWR VPWR _127_ sky130_fd_sc_hd__o211a_1
X_412_ dll_control.clock _041_ _021_ VGND VGND VPWR VPWR dll_control.count1\[3\] sky130_fd_sc_hd__dfrtp_1
XFILLER_0_4_85 VGND VGND VPWR VPWR sky130_fd_sc_hd__decap_3
Xringosc.dstage\[4\].id.delayen1 ringosc.dstage\[4\].id.d0 ringosc.dstage\[4\].id.trim\[1\]
+ VGND VGND VPWR VPWR ringosc.dstage\[4\].id.d1 sky130_fd_sc_hd__einvp_1
XFILLER_0_4_96 VGND VGND VPWR VPWR sky130_fd_sc_hd__fill_2
XFILLER_0_19_86 VGND VGND VPWR VPWR sky130_fd_sc_hd__decap_6
X_326_ net4 _142_ _145_ net5 VGND VGND VPWR VPWR _158_ sky130_fd_sc_hd__o22a_1
X_257_ net12 net3 VGND VGND VPWR VPWR _113_ sky130_fd_sc_hd__and2_1
XFILLER_0_10_77 VGND VGND VPWR VPWR sky130_fd_sc_hd__fill_2
XFILLER_0_10_11 VGND VGND VPWR VPWR sky130_fd_sc_hd__fill_2
X_188_ div[2] VGND VGND VPWR VPWR _049_ sky130_fd_sc_hd__inv_2
XFILLER_0_19_128 VGND VGND VPWR VPWR sky130_fd_sc_hd__fill_2
XFILLER_0_21_54 VGND VGND VPWR VPWR sky130_fd_sc_hd__fill_2
X_309_ net22 ext_trim[1] _148_ VGND VGND VPWR VPWR ringosc.dstage\[1\].id.trim\[0\]
+ sky130_fd_sc_hd__a21o_1
XFILLER_0_21_65 VGND VGND VPWR VPWR sky130_ef_sc_hd__decap_12
XFILLER_0_21_167 VGND VGND VPWR VPWR sky130_fd_sc_hd__fill_1
XFILLER_0_21_134 VGND VGND VPWR VPWR sky130_ef_sc_hd__decap_12
XFILLER_0_8_139 VGND VGND VPWR VPWR sky130_fd_sc_hd__fill_1
XFILLER_0_7_161 VGND VGND VPWR VPWR sky130_fd_sc_hd__fill_1
XTAP_115 VGND VPWR sky130_fd_sc_hd__tapvpwrvgnd_1
Xringosc.dstage\[9\].id.delaybuf1 ringosc.dstage\[9\].id.ts VGND VGND VPWR VPWR ringosc.dstage\[9\].id.d0
+ sky130_fd_sc_hd__clkbuf_1
XTAP_104 VGND VPWR sky130_fd_sc_hd__tapvpwrvgnd_1
Xringosc.dstage\[5\].id.delayenb1 ringosc.dstage\[5\].id.ts ringosc.dstage\[5\].id.trim\[1\]
+ VGND VGND VPWR VPWR ringosc.dstage\[5\].id.d1 sky130_fd_sc_hd__einvn_2
Xringosc.dstage\[10\].id.delaybuf1 ringosc.dstage\[10\].id.ts VGND VGND VPWR VPWR
+ ringosc.dstage\[10\].id.d0 sky130_fd_sc_hd__clkbuf_1
XFILLER_0_13_55 VGND VGND VPWR VPWR sky130_fd_sc_hd__fill_1
X_290_ _132_ _136_ _135_ VGND VGND VPWR VPWR _137_ sky130_fd_sc_hd__o21ai_1
XFILLER_0_1_189 VGND VGND VPWR VPWR sky130_fd_sc_hd__fill_1
X_342_ _156_ net6 VGND VGND VPWR VPWR _168_ sky130_fd_sc_hd__nand2b_1
X_273_ dll_control.tint\[0\] _098_ net3 VGND VGND VPWR VPWR _126_ sky130_fd_sc_hd__mux2_1
X_411_ dll_control.clock _040_ _020_ VGND VGND VPWR VPWR dll_control.count1\[2\] sky130_fd_sc_hd__dfrtp_1
X_325_ net27 ext_trim[8] _147_ _154_ VGND VGND VPWR VPWR ringosc.dstage\[8\].id.trim\[0\]
+ sky130_fd_sc_hd__a22o_1
X_256_ net12 net2 VGND VGND VPWR VPWR _112_ sky130_fd_sc_hd__nor2_1
X_187_ div[3] VGND VGND VPWR VPWR _048_ sky130_fd_sc_hd__inv_2
XFILLER_0_19_118 VGND VGND VPWR VPWR sky130_fd_sc_hd__decap_3
XFILLER_0_18_173 VGND VGND VPWR VPWR sky130_fd_sc_hd__decap_8
XFILLER_0_21_99 VGND VGND VPWR VPWR sky130_fd_sc_hd__decap_3
XFILLER_0_21_77 VGND VGND VPWR VPWR sky130_fd_sc_hd__fill_1
X_308_ _146_ _147_ VGND VGND VPWR VPWR _148_ sky130_fd_sc_hd__and2_2
X_239_ net10 _094_ VGND VGND VPWR VPWR _095_ sky130_fd_sc_hd__nor2_1
XFILLER_0_1_76 VGND VGND VPWR VPWR sky130_fd_sc_hd__decap_3
XFILLER_0_15_121 VGND VGND VPWR VPWR sky130_fd_sc_hd__fill_2
XFILLER_0_21_146 VGND VGND VPWR VPWR sky130_fd_sc_hd__fill_1
XFILLER_0_21_113 VGND VGND VPWR VPWR sky130_fd_sc_hd__fill_1
XFILLER_0_16_11 VGND VGND VPWR VPWR sky130_fd_sc_hd__fill_2
XFILLER_0_12_113 VGND VGND VPWR VPWR sky130_fd_sc_hd__fill_2
XFILLER_0_8_129 VGND VGND VPWR VPWR sky130_fd_sc_hd__fill_2
XFILLER_0_12_168 VGND VGND VPWR VPWR sky130_fd_sc_hd__decap_3
XFILLER_0_7_173 VGND VGND VPWR VPWR sky130_fd_sc_hd__fill_2
XTAP_116 VGND VPWR sky130_fd_sc_hd__tapvpwrvgnd_1
XTAP_105 VGND VPWR sky130_fd_sc_hd__tapvpwrvgnd_1
XANTENNA__405__CLK dll_control.clock VGND VGND VPWR VPWR sky130_fd_sc_hd__diode_2
XFILLER_0_11_9 VGND VGND VPWR VPWR sky130_fd_sc_hd__fill_2
Xringosc.dstage\[5\].id.delaybuf0 ringosc.dstage\[4\].id.out VGND VGND VPWR VPWR ringosc.dstage\[5\].id.ts
+ sky130_fd_sc_hd__clkbuf_2
XFILLER_0_13_89 VGND VGND VPWR VPWR sky130_fd_sc_hd__fill_1
XFILLER_0_13_34 VGND VGND VPWR VPWR sky130_ef_sc_hd__decap_12
XFILLER_0_1_157 VGND VGND VPWR VPWR sky130_fd_sc_hd__decap_8
XFILLER_0_1_135 VGND VGND VPWR VPWR sky130_fd_sc_hd__fill_2
XFILLER_0_1_113 VGND VGND VPWR VPWR sky130_fd_sc_hd__fill_2
XFILLER_0_1_102 VGND VGND VPWR VPWR sky130_fd_sc_hd__decap_3
Xringosc.dstage\[1\].id.delayenb0 ringosc.dstage\[1\].id.ts ringosc.dstage\[1\].id.trim\[0\]
+ VGND VGND VPWR VPWR ringosc.dstage\[1\].id.out sky130_fd_sc_hd__einvn_2
X_341_ _045_ _091_ VGND VGND VPWR VPWR _167_ sky130_fd_sc_hd__nand2_1
X_272_ net12 _125_ net1 VGND VGND VPWR VPWR _035_ sky130_fd_sc_hd__mux2_1
X_410_ dll_control.clock _039_ _019_ VGND VGND VPWR VPWR dll_control.count1\[1\] sky130_fd_sc_hd__dfrtp_1
Xringosc.dstage\[8\].id.delayint0 ringosc.dstage\[8\].id.d1 VGND VGND VPWR VPWR ringosc.dstage\[8\].id.d2
+ sky130_fd_sc_hd__inv_1
XFILLER_0_4_54 VGND VGND VPWR VPWR sky130_fd_sc_hd__decap_8
X_324_ net21 ext_trim[7] _157_ VGND VGND VPWR VPWR ringosc.dstage\[7\].id.trim\[0\]
+ sky130_fd_sc_hd__a21o_1
XFILLER_0_19_11 VGND VGND VPWR VPWR sky130_ef_sc_hd__decap_12
X_186_ dll_control.tint\[0\] VGND VGND VPWR VPWR _047_ sky130_fd_sc_hd__inv_2
X_255_ _045_ net2 VGND VGND VPWR VPWR _111_ sky130_fd_sc_hd__xnor2_1
XFILLER_0_19_77 VGND VGND VPWR VPWR sky130_fd_sc_hd__decap_3
XFILLER_0_19_55 VGND VGND VPWR VPWR sky130_fd_sc_hd__fill_1
XFILLER_0_19_33 VGND VGND VPWR VPWR sky130_fd_sc_hd__fill_1
XFILLER_0_18_163 VGND VGND VPWR VPWR sky130_fd_sc_hd__decap_3
XFILLER_0_18_141 VGND VGND VPWR VPWR sky130_fd_sc_hd__decap_4
X_307_ net27 _095_ VGND VGND VPWR VPWR _147_ sky130_fd_sc_hd__nor2_2
X_238_ _093_ VGND VGND VPWR VPWR _094_ sky130_fd_sc_hd__inv_2
XFILLER_0_1_55 VGND VGND VPWR VPWR sky130_fd_sc_hd__fill_1
XFILLER_0_15_166 VGND VGND VPWR VPWR sky130_fd_sc_hd__fill_2
XFILLER_0_21_169 VGND VGND VPWR VPWR sky130_fd_sc_hd__fill_1
XFILLER_0_8_119 VGND VGND VPWR VPWR sky130_fd_sc_hd__decap_4
XFILLER_0_18_3 VGND VGND VPWR VPWR sky130_fd_sc_hd__decap_4
XTAP_117 VGND VPWR sky130_fd_sc_hd__tapvpwrvgnd_1
XTAP_106 VGND VPWR sky130_fd_sc_hd__tapvpwrvgnd_1
XPHY_0 VGND VGND VPWR VPWR sky130_fd_sc_hd__decap_3
XFILLER_0_4_122 VGND VGND VPWR VPWR sky130_fd_sc_hd__decap_8
XFILLER_0_4_133 VGND VGND VPWR VPWR sky130_fd_sc_hd__fill_2
XFILLER_0_7_21 VGND VGND VPWR VPWR sky130_fd_sc_hd__fill_1
XFILLER_0_7_43 VGND VGND VPWR VPWR sky130_fd_sc_hd__fill_2
XFILLER_0_7_87 VGND VGND VPWR VPWR sky130_fd_sc_hd__fill_2
XFILLER_0_7_3 VGND VGND VPWR VPWR sky130_fd_sc_hd__fill_2
XFILLER_0_13_68 VGND VGND VPWR VPWR sky130_fd_sc_hd__fill_2
XFILLER_0_13_57 VGND VGND VPWR VPWR sky130_fd_sc_hd__fill_1
XFILLER_0_13_46 VGND VGND VPWR VPWR sky130_fd_sc_hd__decap_4
XFILLER_0_1_169 VGND VGND VPWR VPWR sky130_ef_sc_hd__decap_12
Xringosc.dstage\[5\].id.delaybuf1 ringosc.dstage\[5\].id.ts VGND VGND VPWR VPWR ringosc.dstage\[5\].id.d0
+ sky130_fd_sc_hd__clkbuf_1
Xringosc.dstage\[1\].id.delayenb1 ringosc.dstage\[1\].id.ts ringosc.dstage\[1\].id.trim\[1\]
+ VGND VGND VPWR VPWR ringosc.dstage\[1\].id.d1 sky130_fd_sc_hd__einvn_1
X_340_ net23 ext_trim[14] _155_ _166_ VGND VGND VPWR VPWR ringosc.dstage\[1\].id.trim\[1\]
+ sky130_fd_sc_hd__a22o_1
X_271_ _114_ _118_ VGND VGND VPWR VPWR _125_ sky130_fd_sc_hd__xor2_1
Xringosc.dstage\[1\].id.delayen0 ringosc.dstage\[1\].id.d2 ringosc.dstage\[1\].id.trim\[0\]
+ VGND VGND VPWR VPWR ringosc.dstage\[1\].id.out sky130_fd_sc_hd__einvp_2
XFILLER_0_4_77 VGND VGND VPWR VPWR sky130_fd_sc_hd__decap_6
X_323_ net4 _156_ _148_ VGND VGND VPWR VPWR _157_ sky130_fd_sc_hd__o21a_1
X_185_ dll_control.tint\[1\] VGND VGND VPWR VPWR _046_ sky130_fd_sc_hd__inv_2
X_254_ _045_ net2 _109_ _105_ VGND VGND VPWR VPWR _110_ sky130_fd_sc_hd__o31a_1
XFILLER_0_19_109 VGND VGND VPWR VPWR sky130_fd_sc_hd__decap_3
XFILLER_0_19_23 VGND VGND VPWR VPWR sky130_fd_sc_hd__fill_1
XFILLER_0_18_186 VGND VGND VPWR VPWR sky130_fd_sc_hd__decap_4
XFILLER_0_21_57 VGND VGND VPWR VPWR sky130_fd_sc_hd__fill_1
X_306_ _141_ _144_ VGND VGND VPWR VPWR _146_ sky130_fd_sc_hd__nor2_1
X_237_ dll_control.tint\[3\] net11 VGND VGND VPWR VPWR _093_ sky130_fd_sc_hd__nor2_1
XFILLER_0_15_178 VGND VGND VPWR VPWR sky130_ef_sc_hd__decap_12
XFILLER_0_16_46 VGND VGND VPWR VPWR sky130_fd_sc_hd__decap_4
XFILLER_0_20_181 VGND VGND VPWR VPWR sky130_fd_sc_hd__decap_4
XFILLER_0_12_104 VGND VGND VPWR VPWR sky130_fd_sc_hd__decap_6
XFILLER_0_9_7 VGND VGND VPWR VPWR sky130_fd_sc_hd__fill_1
XTAP_118 VGND VPWR sky130_fd_sc_hd__tapvpwrvgnd_1
XTAP_107 VGND VPWR sky130_fd_sc_hd__tapvpwrvgnd_1
XPHY_1 VGND VGND VPWR VPWR sky130_fd_sc_hd__decap_3
XFILLER_0_4_189 VGND VGND VPWR VPWR sky130_fd_sc_hd__fill_1
XFILLER_0_7_33 VGND VGND VPWR VPWR sky130_fd_sc_hd__fill_1
XFILLER_0_7_55 VGND VGND VPWR VPWR sky130_fd_sc_hd__fill_1
XFILLER_0_7_77 VGND VGND VPWR VPWR sky130_fd_sc_hd__fill_2
XFILLER_0_13_25 VGND VGND VPWR VPWR sky130_fd_sc_hd__fill_2
XFILLER_0_0_181 VGND VGND VPWR VPWR sky130_fd_sc_hd__decap_8
X_270_ dll_control.tint\[3\] _124_ net1 VGND VGND VPWR VPWR _036_ sky130_fd_sc_hd__mux2_1
Xringosc.dstage\[1\].id.delayen1 ringosc.dstage\[1\].id.d0 ringosc.dstage\[1\].id.trim\[1\]
+ VGND VGND VPWR VPWR ringosc.dstage\[1\].id.d1 sky130_fd_sc_hd__einvp_1
XFILLER_0_4_45 VGND VGND VPWR VPWR sky130_fd_sc_hd__fill_2
XFILLER_0_4_67 VGND VGND VPWR VPWR sky130_fd_sc_hd__decap_4
X_399_ dll_control.clock _031_ _008_ VGND VGND VPWR VPWR dll_control.tval\[0\] sky130_fd_sc_hd__dfrtp_1
X_322_ net11 _140_ VGND VGND VPWR VPWR _156_ sky130_fd_sc_hd__nand2_2
Xringosc.dstage\[1\].id.delaybuf0 ringosc.dstage\[0\].id.out VGND VGND VPWR VPWR ringosc.dstage\[1\].id.ts
+ sky130_fd_sc_hd__clkbuf_2
XFILLER_0_19_57 VGND VGND VPWR VPWR sky130_fd_sc_hd__decap_6
XFILLER_0_19_46 VGND VGND VPWR VPWR sky130_fd_sc_hd__decap_6
Xringosc.dstage\[4\].id.delayint0 ringosc.dstage\[4\].id.d1 VGND VGND VPWR VPWR ringosc.dstage\[4\].id.d2
+ sky130_fd_sc_hd__inv_1
X_184_ dll_control.tint\[3\] VGND VGND VPWR VPWR _045_ sky130_fd_sc_hd__inv_2
X_253_ net9 net11 _106_ _107_ VGND VGND VPWR VPWR _109_ sky130_fd_sc_hd__nand4_1
XFILLER_0_18_154 VGND VGND VPWR VPWR sky130_fd_sc_hd__decap_3
X_305_ _044_ _143_ VGND VGND VPWR VPWR _145_ sky130_fd_sc_hd__nand2_2
X_236_ _046_ _047_ VGND VGND VPWR VPWR _092_ sky130_fd_sc_hd__nand2_1
XANTENNA__408__CLK dll_control.clock VGND VGND VPWR VPWR sky130_fd_sc_hd__diode_2
XFILLER_0_15_157 VGND VGND VPWR VPWR sky130_fd_sc_hd__decap_3
XFILLER_0_15_113 VGND VGND VPWR VPWR sky130_fd_sc_hd__decap_3
XFILLER_0_1_68 VGND VGND VPWR VPWR sky130_fd_sc_hd__fill_1
XFILLER_0_1_57 VGND VGND VPWR VPWR sky130_fd_sc_hd__fill_1
XFILLER_0_12_149 VGND VGND VPWR VPWR sky130_fd_sc_hd__fill_2
XFILLER_0_12_138 VGND VGND VPWR VPWR sky130_fd_sc_hd__fill_2
X_219_ _059_ _066_ _073_ VGND VGND VPWR VPWR _075_ sky130_fd_sc_hd__a21oi_1
Xringosc.dstage\[9\].id.delayen0 ringosc.dstage\[9\].id.d2 ringosc.dstage\[9\].id.trim\[0\]
+ VGND VGND VPWR VPWR ringosc.dstage\[10\].id.in sky130_fd_sc_hd__einvp_2
XFILLER_0_7_110 VGND VGND VPWR VPWR sky130_fd_sc_hd__fill_2
XFILLER_0_7_165 VGND VGND VPWR VPWR sky130_fd_sc_hd__decap_3
XTAP_119 VGND VPWR sky130_fd_sc_hd__tapvpwrvgnd_1
XTAP_108 VGND VPWR sky130_fd_sc_hd__tapvpwrvgnd_1
XPHY_2 VGND VGND VPWR VPWR sky130_fd_sc_hd__decap_3
XFILLER_0_17_90 VGND VGND VPWR VPWR sky130_fd_sc_hd__decap_6
XFILLER_0_7_67 VGND VGND VPWR VPWR sky130_fd_sc_hd__decap_6
X_398_ dll_control.clock _030_ _007_ VGND VGND VPWR VPWR dll_control.count0\[4\] sky130_fd_sc_hd__dfrtp_4
Xringosc.dstage\[1\].id.delaybuf1 ringosc.dstage\[1\].id.ts VGND VGND VPWR VPWR ringosc.dstage\[1\].id.d0
+ sky130_fd_sc_hd__clkbuf_1
XFILLER_0_19_69 VGND VGND VPWR VPWR sky130_fd_sc_hd__fill_2
X_321_ net22 ext_trim[6] _151_ VGND VGND VPWR VPWR ringosc.dstage\[6\].id.trim\[0\]
+ sky130_fd_sc_hd__a21o_1
X_252_ net13 dll_control.tint\[0\] VGND VGND VPWR VPWR _108_ sky130_fd_sc_hd__nand2_1
X_183_ net9 VGND VGND VPWR VPWR _044_ sky130_fd_sc_hd__inv_2
XFILLER_0_10_38 VGND VGND VPWR VPWR sky130_ef_sc_hd__decap_12
XFILLER_0_18_111 VGND VGND VPWR VPWR sky130_fd_sc_hd__fill_2
XFILLER_0_18_100 VGND VGND VPWR VPWR sky130_fd_sc_hd__decap_3
XFILLER_0_21_37 VGND VGND VPWR VPWR sky130_ef_sc_hd__decap_12
XFILLER_0_21_15 VGND VGND VPWR VPWR sky130_fd_sc_hd__decap_6
X_235_ net13 dll_control.tint\[0\] VGND VGND VPWR VPWR _091_ sky130_fd_sc_hd__nor2_1
X_304_ _044_ _045_ net11 VGND VGND VPWR VPWR _144_ sky130_fd_sc_hd__and3_1
XFILLER_0_15_169 VGND VGND VPWR VPWR sky130_fd_sc_hd__fill_2
X_218_ _059_ _066_ _073_ VGND VGND VPWR VPWR _074_ sky130_fd_sc_hd__and3_1
Xringosc.dstage\[9\].id.delayen1 ringosc.dstage\[9\].id.d0 ringosc.dstage\[9\].id.trim\[1\]
+ VGND VGND VPWR VPWR ringosc.dstage\[9\].id.d1 sky130_fd_sc_hd__einvp_1
XTAP_109 VGND VPWR sky130_fd_sc_hd__tapvpwrvgnd_1
XFILLER_0_2_90 VGND VGND VPWR VPWR sky130_fd_sc_hd__decap_4
XFILLER_0_16_3 VGND VGND VPWR VPWR sky130_fd_sc_hd__decap_8
XPHY_3 VGND VGND VPWR VPWR sky130_fd_sc_hd__decap_3
XFILLER_0_7_57 VGND VGND VPWR VPWR sky130_fd_sc_hd__fill_1