*SPEF "ieee 1481-1999"
*DESIGN "digital_locked_loop"
*DATE "11:11:11 Fri 11 11, 1111"
*VENDOR "OpenRCX"
*PROGRAM "Parallel Extraction"
*VERSION "1.0"
*DESIGN_FLOW "NAME_SCOPE LOCAL" "PIN_CAP NONE"
*DIVIDER /
*DELIMITER :
*BUS_DELIMITER []
*T_UNIT 1 NS
*C_UNIT 1 PF
*R_UNIT 1 OHM
*L_UNIT 1 HENRY

*NAME_MAP
*3 clockp[0]
*4 clockp[1]
*5 dco
*6 div[0]
*7 div[1]
*8 div[2]
*9 div[3]
*10 div[4]
*11 enable
*12 ext_trim[0]
*13 ext_trim[10]
*14 ext_trim[11]
*15 ext_trim[12]
*16 ext_trim[13]
*17 ext_trim[14]
*18 ext_trim[15]
*19 ext_trim[16]
*20 ext_trim[17]
*21 ext_trim[18]
*22 ext_trim[19]
*23 ext_trim[1]
*24 ext_trim[20]
*25 ext_trim[21]
*26 ext_trim[22]
*27 ext_trim[23]
*28 ext_trim[24]
*29 ext_trim[25]
*30 ext_trim[2]
*31 ext_trim[3]
*32 ext_trim[4]
*33 ext_trim[5]
*34 ext_trim[6]
*35 ext_trim[7]
*36 ext_trim[8]
*37 ext_trim[9]
*38 osc
*39 resetb
*40 _000_
*41 _001_
*42 _002_
*43 _003_
*44 _004_
*45 _005_
*46 _006_
*47 _007_
*48 _008_
*49 _009_
*50 _010_
*51 _011_
*52 _012_
*53 _013_
*54 _014_
*55 _015_
*56 _016_
*57 _017_
*58 _018_
*59 _019_
*60 _020_
*61 _021_
*62 _022_
*63 _023_
*64 _024_
*65 _025_
*66 _026_
*67 _027_
*68 _028_
*69 _029_
*70 _030_
*71 _031_
*72 _032_
*73 _033_
*74 _034_
*75 _035_
*76 _036_
*77 _037_
*78 _038_
*79 _039_
*80 _040_
*81 _041_
*82 _042_
*83 _043_
*84 _044_
*85 _045_
*86 _046_
*87 _047_
*88 _048_
*89 _049_
*90 _050_
*91 _051_
*92 _052_
*93 _053_
*94 _054_
*95 _055_
*96 _056_
*97 _057_
*98 _058_
*99 _059_
*100 _060_
*101 _061_
*102 _062_
*103 _063_
*104 _064_
*105 _065_
*106 _066_
*107 _067_
*108 _068_
*109 _069_
*110 _070_
*111 _071_
*112 _072_
*113 _073_
*114 _074_
*115 _075_
*116 _076_
*117 _077_
*118 _078_
*119 _079_
*120 _080_
*121 _081_
*122 _082_
*123 _083_
*124 _084_
*125 _085_
*126 _086_
*127 _087_
*128 _088_
*129 _089_
*130 _090_
*131 _091_
*132 _092_
*133 _093_
*134 _094_
*135 _095_
*136 _096_
*137 _097_
*138 _098_
*139 _099_
*140 _100_
*141 _101_
*142 _102_
*143 _103_
*144 _104_
*145 _105_
*146 _106_
*147 _107_
*148 _108_
*149 _109_
*150 _110_
*151 _111_
*152 _112_
*153 _113_
*154 _114_
*155 _115_
*156 _116_
*157 _117_
*158 _118_
*159 _119_
*160 _120_
*161 _121_
*162 _122_
*163 _123_
*164 _124_
*165 _125_
*166 _126_
*167 _127_
*168 _128_
*169 _129_
*170 _130_
*171 _131_
*172 _132_
*173 _133_
*174 _134_
*175 _135_
*176 _136_
*177 _137_
*178 _138_
*179 _139_
*180 _140_
*181 _141_
*182 _142_
*183 _143_
*184 _144_
*185 _145_
*186 _146_
*187 _147_
*188 _148_
*189 _149_
*190 _150_
*191 _151_
*192 _152_
*193 _153_
*194 _154_
*195 _155_
*196 _156_
*197 _157_
*198 _158_
*199 _159_
*200 _160_
*201 _161_
*202 _162_
*203 _163_
*204 _164_
*205 _165_
*206 _166_
*207 _167_
*208 _168_
*209 _169_
*210 _170_
*211 _171_
*212 _172_
*213 _173_
*214 _174_
*215 _175_
*216 _176_
*217 _177_
*218 _178_
*219 _179_
*220 _180_
*221 _181_
*222 dll_control\.clock
*223 dll_control\.count0\[0\]
*224 dll_control\.count0\[1\]
*225 dll_control\.count0\[2\]
*226 dll_control\.count0\[3\]
*227 dll_control\.count0\[4\]
*228 dll_control\.count1\[0\]
*229 dll_control\.count1\[1\]
*230 dll_control\.count1\[2\]
*231 dll_control\.count1\[3\]
*232 dll_control\.count1\[4\]
*233 dll_control\.oscbuf\[0\]
*234 dll_control\.oscbuf\[1\]
*235 dll_control\.oscbuf\[2\]
*236 dll_control\.prep\[0\]
*237 dll_control\.prep\[1\]
*238 dll_control\.prep\[2\]
*239 dll_control\.tint\[0\]
*240 dll_control\.tint\[1\]
*241 dll_control\.tint\[2\]
*242 dll_control\.tint\[3\]
*243 dll_control\.tint\[4\]
*244 dll_control\.tval\[0\]
*245 dll_control\.tval\[1\]
*246 net1
*247 net10
*248 net11
*249 net12
*250 net13
*251 net14
*252 net15
*253 net16
*254 net17
*255 net18
*256 net19
*257 net2
*258 net20
*259 net21
*260 net22
*261 net23
*262 net24
*263 net25
*264 net26
*265 net27
*266 net28
*267 net29
*268 net3
*269 net30
*270 net4
*271 net5
*272 net6
*273 net7
*274 net8
*275 net9
*276 ringosc\.c\[0\]
*277 ringosc\.c\[1\]
*278 ringosc\.dstage\[0\]\.id\.d0
*279 ringosc\.dstage\[0\]\.id\.d1
*280 ringosc\.dstage\[0\]\.id\.d2
*281 ringosc\.dstage\[0\]\.id\.in
*282 ringosc\.dstage\[0\]\.id\.out
*283 ringosc\.dstage\[0\]\.id\.trim\[0\]
*284 ringosc\.dstage\[0\]\.id\.trim\[1\]
*285 ringosc\.dstage\[0\]\.id\.ts
*286 ringosc\.dstage\[10\]\.id\.d0
*287 ringosc\.dstage\[10\]\.id\.d1
*288 ringosc\.dstage\[10\]\.id\.d2
*289 ringosc\.dstage\[10\]\.id\.in
*290 ringosc\.dstage\[10\]\.id\.out
*291 ringosc\.dstage\[10\]\.id\.trim\[0\]
*292 ringosc\.dstage\[10\]\.id\.trim\[1\]
*293 ringosc\.dstage\[10\]\.id\.ts
*294 ringosc\.dstage\[11\]\.id\.d0
*295 ringosc\.dstage\[11\]\.id\.d1
*296 ringosc\.dstage\[11\]\.id\.d2
*297 ringosc\.dstage\[11\]\.id\.out
*298 ringosc\.dstage\[11\]\.id\.trim\[0\]
*299 ringosc\.dstage\[11\]\.id\.trim\[1\]
*300 ringosc\.dstage\[11\]\.id\.ts
*301 ringosc\.dstage\[1\]\.id\.d0
*302 ringosc\.dstage\[1\]\.id\.d1
*303 ringosc\.dstage\[1\]\.id\.d2
*304 ringosc\.dstage\[1\]\.id\.out
*305 ringosc\.dstage\[1\]\.id\.trim\[0\]
*306 ringosc\.dstage\[1\]\.id\.trim\[1\]
*307 ringosc\.dstage\[1\]\.id\.ts
*308 ringosc\.dstage\[2\]\.id\.d0
*309 ringosc\.dstage\[2\]\.id\.d1
*310 ringosc\.dstage\[2\]\.id\.d2
*311 ringosc\.dstage\[2\]\.id\.out
*312 ringosc\.dstage\[2\]\.id\.trim\[0\]
*313 ringosc\.dstage\[2\]\.id\.trim\[1\]
*314 ringosc\.dstage\[2\]\.id\.ts
*315 ringosc\.dstage\[3\]\.id\.d0
*316 ringosc\.dstage\[3\]\.id\.d1
*317 ringosc\.dstage\[3\]\.id\.d2
*318 ringosc\.dstage\[3\]\.id\.out
*319 ringosc\.dstage\[3\]\.id\.trim\[0\]
*320 ringosc\.dstage\[3\]\.id\.trim\[1\]
*321 ringosc\.dstage\[3\]\.id\.ts
*322 ringosc\.dstage\[4\]\.id\.d0
*323 ringosc\.dstage\[4\]\.id\.d1
*324 ringosc\.dstage\[4\]\.id\.d2
*325 ringosc\.dstage\[4\]\.id\.out
*326 ringosc\.dstage\[4\]\.id\.trim\[0\]
*327 ringosc\.dstage\[4\]\.id\.trim\[1\]
*328 ringosc\.dstage\[4\]\.id\.ts
*329 ringosc\.dstage\[5\]\.id\.d0
*330 ringosc\.dstage\[5\]\.id\.d1
*331 ringosc\.dstage\[5\]\.id\.d2
*332 ringosc\.dstage\[5\]\.id\.out
*333 ringosc\.dstage\[5\]\.id\.trim\[0\]
*334 ringosc\.dstage\[5\]\.id\.trim\[1\]
*335 ringosc\.dstage\[5\]\.id\.ts
*336 ringosc\.dstage\[6\]\.id\.d0
*337 ringosc\.dstage\[6\]\.id\.d1
*338 ringosc\.dstage\[6\]\.id\.d2
*339 ringosc\.dstage\[6\]\.id\.out
*340 ringosc\.dstage\[6\]\.id\.trim\[0\]
*341 ringosc\.dstage\[6\]\.id\.trim\[1\]
*342 ringosc\.dstage\[6\]\.id\.ts
*343 ringosc\.dstage\[7\]\.id\.d0
*344 ringosc\.dstage\[7\]\.id\.d1
*345 ringosc\.dstage\[7\]\.id\.d2
*346 ringosc\.dstage\[7\]\.id\.out
*347 ringosc\.dstage\[7\]\.id\.trim\[0\]
*348 ringosc\.dstage\[7\]\.id\.trim\[1\]
*349 ringosc\.dstage\[7\]\.id\.ts
*350 ringosc\.dstage\[8\]\.id\.d0
*351 ringosc\.dstage\[8\]\.id\.d1
*352 ringosc\.dstage\[8\]\.id\.d2
*353 ringosc\.dstage\[8\]\.id\.out
*354 ringosc\.dstage\[8\]\.id\.trim\[0\]
*355 ringosc\.dstage\[8\]\.id\.trim\[1\]
*356 ringosc\.dstage\[8\]\.id\.ts
*357 ringosc\.dstage\[9\]\.id\.d0
*358 ringosc\.dstage\[9\]\.id\.d1
*359 ringosc\.dstage\[9\]\.id\.d2
*360 ringosc\.dstage\[9\]\.id\.trim\[0\]
*361 ringosc\.dstage\[9\]\.id\.trim\[1\]
*362 ringosc\.dstage\[9\]\.id\.ts
*363 ringosc\.iss\.ctrl0
*364 ringosc\.iss\.d0
*365 ringosc\.iss\.d1
*366 ringosc\.iss\.d2
*367 ringosc\.iss\.one
*368 ringosc\.iss\.reset
*369 ringosc\.iss\.trim\[0\]
*370 ringosc\.iss\.trim\[1\]
*371 ANTENNA_1
*372 ANTENNA__391__CLK
*373 ANTENNA__392__CLK
*374 ANTENNA__393__CLK
*375 ANTENNA__394__CLK
*376 ANTENNA__395__CLK
*377 ANTENNA__396__CLK
*378 ANTENNA__397__CLK
*379 ANTENNA__398__CLK
*380 ANTENNA__399__CLK
*381 ANTENNA__400__CLK
*382 ANTENNA__401__CLK
*383 ANTENNA__402__CLK
*384 ANTENNA__403__CLK
*385 ANTENNA__404__CLK
*386 ANTENNA__405__CLK
*387 ANTENNA__406__CLK
*388 ANTENNA__407__CLK
*389 ANTENNA__408__CLK
*390 ANTENNA__409__CLK
*391 ANTENNA__410__CLK
*392 ANTENNA__411__CLK
*393 ANTENNA__412__CLK
*394 ANTENNA__413__CLK
*395 ANTENNA__414__A
*396 FILLER_0_0_103
*397 FILLER_0_0_106
*398 FILLER_0_0_11
*399 FILLER_0_0_110
*400 FILLER_0_0_113
*401 FILLER_0_0_120
*402 FILLER_0_0_132
*403 FILLER_0_0_137
*404 FILLER_0_0_14
*405 FILLER_0_0_141
*406 FILLER_0_0_162
*407 FILLER_0_0_169
*408 FILLER_0_0_181
*409 FILLER_0_0_189
*410 FILLER_0_0_25
*411 FILLER_0_0_3
*412 FILLER_0_0_31
*413 FILLER_0_0_37
*414 FILLER_0_0_50
*415 FILLER_0_0_57
*416 FILLER_0_0_78
*417 FILLER_0_0_81
*418 FILLER_0_0_85
*419 FILLER_0_0_95
*420 FILLER_0_10_109
*421 FILLER_0_10_11
*422 FILLER_0_10_118
*423 FILLER_0_10_130
*424 FILLER_0_10_136
*425 FILLER_0_10_141
*426 FILLER_0_10_151
*427 FILLER_0_10_156
*428 FILLER_0_10_170
*429 FILLER_0_10_182
*430 FILLER_0_10_189
*431 FILLER_0_10_20
*432 FILLER_0_10_29
*433 FILLER_0_10_3
*434 FILLER_0_10_38
*435 FILLER_0_10_50
*436 FILLER_0_10_54
*437 FILLER_0_10_62
*438 FILLER_0_10_77
*439 FILLER_0_10_83
*440 FILLER_0_10_85
*441 FILLER_0_10_97
*442 FILLER_0_11_105
*443 FILLER_0_11_111
*444 FILLER_0_11_113
*445 FILLER_0_11_122
*446 FILLER_0_11_128
*447 FILLER_0_11_134
*448 FILLER_0_11_144
*449 FILLER_0_11_155
*450 FILLER_0_11_164
*451 FILLER_0_11_169
*452 FILLER_0_11_173
*453 FILLER_0_11_186
*454 FILLER_0_11_19
*455 FILLER_0_11_26
*456 FILLER_0_11_3
*457 FILLER_0_11_38
*458 FILLER_0_11_47
*459 FILLER_0_11_52
*460 FILLER_0_11_57
*461 FILLER_0_11_65
*462 FILLER_0_11_76
*463 FILLER_0_11_86
*464 FILLER_0_11_9
*465 FILLER_0_12_104
*466 FILLER_0_12_113
*467 FILLER_0_12_122
*468 FILLER_0_12_138
*469 FILLER_0_12_141
*470 FILLER_0_12_149
*471 FILLER_0_12_155
*472 FILLER_0_12_168
*473 FILLER_0_12_17
*474 FILLER_0_12_182
*475 FILLER_0_12_187
*476 FILLER_0_12_27
*477 FILLER_0_12_29
*478 FILLER_0_12_3
*479 FILLER_0_12_33
*480 FILLER_0_12_41
*481 FILLER_0_12_58
*482 FILLER_0_12_65
*483 FILLER_0_12_72
*484 FILLER_0_12_77
*485 FILLER_0_12_83
*486 FILLER_0_12_85
*487 FILLER_0_12_9
*488 FILLER_0_13_106
*489 FILLER_0_13_113
*490 FILLER_0_13_117
*491 FILLER_0_13_121
*492 FILLER_0_13_125
*493 FILLER_0_13_130
*494 FILLER_0_13_140
*495 FILLER_0_13_145
*496 FILLER_0_13_150
*497 FILLER_0_13_161
*498 FILLER_0_13_167
*499 FILLER_0_13_169
*500 FILLER_0_13_17
*501 FILLER_0_13_173
*502 FILLER_0_13_181
*503 FILLER_0_13_186
*504 FILLER_0_13_25
*505 FILLER_0_13_3
*506 FILLER_0_13_34
*507 FILLER_0_13_46
*508 FILLER_0_13_55
*509 FILLER_0_13_57
*510 FILLER_0_13_61
*511 FILLER_0_13_68
*512 FILLER_0_13_75
*513 FILLER_0_13_81
*514 FILLER_0_13_85
*515 FILLER_0_13_89
*516 FILLER_0_13_9
*517 FILLER_0_13_98
*518 FILLER_0_14_101
*519 FILLER_0_14_108
*520 FILLER_0_14_11
*521 FILLER_0_14_113
*522 FILLER_0_14_121
*523 FILLER_0_14_126
*524 FILLER_0_14_131
*525 FILLER_0_14_136
*526 FILLER_0_14_141
*527 FILLER_0_14_148
*528 FILLER_0_14_157
*529 FILLER_0_14_16
*530 FILLER_0_14_165
*531 FILLER_0_14_172
*532 FILLER_0_14_181
*533 FILLER_0_14_186
*534 FILLER_0_14_20
*535 FILLER_0_14_27
*536 FILLER_0_14_29
*537 FILLER_0_14_3
*538 FILLER_0_14_37
*539 FILLER_0_14_44
*540 FILLER_0_14_50
*541 FILLER_0_14_60
*542 FILLER_0_14_70
*543 FILLER_0_14_76
*544 FILLER_0_14_81
*545 FILLER_0_14_85
*546 FILLER_0_14_89
*547 FILLER_0_14_96
*548 FILLER_0_15_109
*549 FILLER_0_15_113
*550 FILLER_0_15_121
*551 FILLER_0_15_130
*552 FILLER_0_15_139
*553 FILLER_0_15_151
*554 FILLER_0_15_157
*555 FILLER_0_15_166
*556 FILLER_0_15_169
*557 FILLER_0_15_178
*558 FILLER_0_15_18
*559 FILLER_0_15_29
*560 FILLER_0_15_3
*561 FILLER_0_15_41
*562 FILLER_0_15_47
*563 FILLER_0_15_53
*564 FILLER_0_15_57
*565 FILLER_0_15_7
*566 FILLER_0_15_70
*567 FILLER_0_15_76
*568 FILLER_0_15_91
*569 FILLER_0_15_98
*570 FILLER_0_16_101
*571 FILLER_0_16_106
*572 FILLER_0_16_11
*573 FILLER_0_16_115
*574 FILLER_0_16_122
*575 FILLER_0_16_128
*576 FILLER_0_16_137
*577 FILLER_0_16_141
*578 FILLER_0_16_146
*579 FILLER_0_16_150
*580 FILLER_0_16_155
*581 FILLER_0_16_16
*582 FILLER_0_16_161
*583 FILLER_0_16_169
*584 FILLER_0_16_175
*585 FILLER_0_16_187
*586 FILLER_0_16_29
*587 FILLER_0_16_3
*588 FILLER_0_16_39
*589 FILLER_0_16_46
*590 FILLER_0_16_53
*591 FILLER_0_16_61
*592 FILLER_0_16_75
*593 FILLER_0_16_83
*594 FILLER_0_16_85
*595 FILLER_0_16_93
*596 FILLER_0_16_97
*597 FILLER_0_17_108
*598 FILLER_0_17_11
*599 FILLER_0_17_113
*600 FILLER_0_17_123
*601 FILLER_0_17_129
*602 FILLER_0_17_140
*603 FILLER_0_17_145
*604 FILLER_0_17_15
*605 FILLER_0_17_157
*606 FILLER_0_17_165
*607 FILLER_0_17_169
*608 FILLER_0_17_176
*609 FILLER_0_17_187
*610 FILLER_0_17_24
*611 FILLER_0_17_3
*612 FILLER_0_17_43
*613 FILLER_0_17_48
*614 FILLER_0_17_57
*615 FILLER_0_17_66
*616 FILLER_0_17_74
*617 FILLER_0_17_90
*618 FILLER_0_17_99
*619 FILLER_0_18_100
*620 FILLER_0_18_111
*621 FILLER_0_18_119
*622 FILLER_0_18_126
*623 FILLER_0_18_135
*624 FILLER_0_18_139
*625 FILLER_0_18_14
*626 FILLER_0_18_141
*627 FILLER_0_18_145
*628 FILLER_0_18_154
*629 FILLER_0_18_163
*630 FILLER_0_18_173
*631 FILLER_0_18_186
*632 FILLER_0_18_27
*633 FILLER_0_18_29
*634 FILLER_0_18_3
*635 FILLER_0_18_39
*636 FILLER_0_18_51
*637 FILLER_0_18_55
*638 FILLER_0_18_59
*639 FILLER_0_18_66
*640 FILLER_0_18_83
*641 FILLER_0_18_85
*642 FILLER_0_18_89
*643 FILLER_0_19_100
*644 FILLER_0_19_109
*645 FILLER_0_19_11
*646 FILLER_0_19_113
*647 FILLER_0_19_118
*648 FILLER_0_19_128
*649 FILLER_0_19_133
*650 FILLER_0_19_141
*651 FILLER_0_19_152
*652 FILLER_0_19_167
*653 FILLER_0_19_169
*654 FILLER_0_19_178
*655 FILLER_0_19_23
*656 FILLER_0_19_27
*657 FILLER_0_19_3
*658 FILLER_0_19_33
*659 FILLER_0_19_40
*660 FILLER_0_19_46
*661 FILLER_0_19_55
*662 FILLER_0_19_57
*663 FILLER_0_19_63
*664 FILLER_0_19_69
*665 FILLER_0_19_77
*666 FILLER_0_19_86
*667 FILLER_0_1_102
*668 FILLER_0_1_108
*669 FILLER_0_1_113
*670 FILLER_0_1_135
*671 FILLER_0_1_157
*672 FILLER_0_1_165
*673 FILLER_0_1_169
*674 FILLER_0_1_181
*675 FILLER_0_1_189
*676 FILLER_0_1_29
*677 FILLER_0_1_3
*678 FILLER_0_1_52
*679 FILLER_0_1_55
*680 FILLER_0_1_57
*681 FILLER_0_1_62
*682 FILLER_0_1_68
*683 FILLER_0_1_76
*684 FILLER_0_20_100
*685 FILLER_0_20_111
*686 FILLER_0_20_119
*687 FILLER_0_20_12
*688 FILLER_0_20_123
*689 FILLER_0_20_132
*690 FILLER_0_20_139
*691 FILLER_0_20_141
*692 FILLER_0_20_147
*693 FILLER_0_20_154
*694 FILLER_0_20_163
*695 FILLER_0_20_175
*696 FILLER_0_20_18
*697 FILLER_0_20_181
*698 FILLER_0_20_189
*699 FILLER_0_20_27
*700 FILLER_0_20_29
*701 FILLER_0_20_3
*702 FILLER_0_20_40
*703 FILLER_0_20_45
*704 FILLER_0_20_53
*705 FILLER_0_20_61
*706 FILLER_0_20_74
*707 FILLER_0_20_83
*708 FILLER_0_20_85
*709 FILLER_0_20_91
*710 FILLER_0_20_95
*711 FILLER_0_21_109
*712 FILLER_0_21_113
*713 FILLER_0_21_121
*714 FILLER_0_21_134
*715 FILLER_0_21_146
*716 FILLER_0_21_15
*717 FILLER_0_21_154
*718 FILLER_0_21_163
*719 FILLER_0_21_167
*720 FILLER_0_21_169
*721 FILLER_0_21_177
*722 FILLER_0_21_186
*723 FILLER_0_21_28
*724 FILLER_0_21_3
*725 FILLER_0_21_37
*726 FILLER_0_21_49
*727 FILLER_0_21_54
*728 FILLER_0_21_57
*729 FILLER_0_21_65
*730 FILLER_0_21_77
*731 FILLER_0_21_83
*732 FILLER_0_21_99
*733 FILLER_0_22_103
*734 FILLER_0_22_111
*735 FILLER_0_22_113
*736 FILLER_0_22_117
*737 FILLER_0_22_121
*738 FILLER_0_22_125
*739 FILLER_0_22_131
*740 FILLER_0_22_136
*741 FILLER_0_22_141
*742 FILLER_0_22_149
*743 FILLER_0_22_15
*744 FILLER_0_22_155
*745 FILLER_0_22_160
*746 FILLER_0_22_167
*747 FILLER_0_22_169
*748 FILLER_0_22_177
*749 FILLER_0_22_182
*750 FILLER_0_22_27
*751 FILLER_0_22_29
*752 FILLER_0_22_3
*753 FILLER_0_22_35
*754 FILLER_0_22_42
*755 FILLER_0_22_53
*756 FILLER_0_22_57
*757 FILLER_0_22_65
*758 FILLER_0_22_71
*759 FILLER_0_22_75
*760 FILLER_0_22_81
*761 FILLER_0_22_85
*762 FILLER_0_22_89
*763 FILLER_0_22_94
*764 FILLER_0_2_115
*765 FILLER_0_2_12
*766 FILLER_0_2_120
*767 FILLER_0_2_128
*768 FILLER_0_2_132
*769 FILLER_0_2_136
*770 FILLER_0_2_139
*771 FILLER_0_2_141
*772 FILLER_0_2_145
*773 FILLER_0_2_152
*774 FILLER_0_2_163
*775 FILLER_0_2_175
*776 FILLER_0_2_187
*777 FILLER_0_2_19
*778 FILLER_0_2_26
*779 FILLER_0_2_29
*780 FILLER_0_2_3
*781 FILLER_0_2_33
*782 FILLER_0_2_41
*783 FILLER_0_2_52
*784 FILLER_0_2_56
*785 FILLER_0_2_60
*786 FILLER_0_2_66
*787 FILLER_0_2_72
*788 FILLER_0_2_77
*789 FILLER_0_2_83
*790 FILLER_0_2_85
*791 FILLER_0_2_90
*792 FILLER_0_2_94
*793 FILLER_0_3_111
*794 FILLER_0_3_113
*795 FILLER_0_3_135
*796 FILLER_0_3_138
*797 FILLER_0_3_159
*798 FILLER_0_3_163
*799 FILLER_0_3_167
*800 FILLER_0_3_169
*801 FILLER_0_3_17
*802 FILLER_0_3_177
*803 FILLER_0_3_183
*804 FILLER_0_3_189
*805 FILLER_0_3_29
*806 FILLER_0_3_3
*807 FILLER_0_3_36
*808 FILLER_0_3_52
*809 FILLER_0_3_57
*810 FILLER_0_3_65
*811 FILLER_0_3_72
*812 FILLER_0_3_77
*813 FILLER_0_3_85
*814 FILLER_0_3_9
*815 FILLER_0_3_96
*816 FILLER_0_4_119
*817 FILLER_0_4_122
*818 FILLER_0_4_133
*819 FILLER_0_4_139
*820 FILLER_0_4_141
*821 FILLER_0_4_162
*822 FILLER_0_4_174
*823 FILLER_0_4_185
*824 FILLER_0_4_189
*825 FILLER_0_4_19
*826 FILLER_0_4_27
*827 FILLER_0_4_29
*828 FILLER_0_4_3
*829 FILLER_0_4_37
*830 FILLER_0_4_45
*831 FILLER_0_4_54
*832 FILLER_0_4_67
*833 FILLER_0_4_77
*834 FILLER_0_4_83
*835 FILLER_0_4_85
*836 FILLER_0_4_9
*837 FILLER_0_4_96
*838 FILLER_0_5_102
*839 FILLER_0_5_107
*840 FILLER_0_5_110
*841 FILLER_0_5_113
*842 FILLER_0_5_119
*843 FILLER_0_5_12
*844 FILLER_0_5_131
*845 FILLER_0_5_137
*846 FILLER_0_5_158
*847 FILLER_0_5_162
*848 FILLER_0_5_166
*849 FILLER_0_5_169
*850 FILLER_0_5_179
*851 FILLER_0_5_187
*852 FILLER_0_5_3
*853 FILLER_0_5_35
*854 FILLER_0_5_40
*855 FILLER_0_5_43
*856 FILLER_0_5_51
*857 FILLER_0_5_55
*858 FILLER_0_5_57
*859 FILLER_0_5_62
*860 FILLER_0_5_89
*861 FILLER_0_5_96
*862 FILLER_0_6_106
*863 FILLER_0_6_109
*864 FILLER_0_6_11
*865 FILLER_0_6_114
*866 FILLER_0_6_118
*867 FILLER_0_6_124
*868 FILLER_0_6_129
*869 FILLER_0_6_137
*870 FILLER_0_6_141
*871 FILLER_0_6_162
*872 FILLER_0_6_17
*873 FILLER_0_6_174
*874 FILLER_0_6_186
*875 FILLER_0_6_27
*876 FILLER_0_6_29
*877 FILLER_0_6_3
*878 FILLER_0_6_33
*879 FILLER_0_6_38
*880 FILLER_0_6_44
*881 FILLER_0_6_48
*882 FILLER_0_6_69
*883 FILLER_0_6_72
*884 FILLER_0_6_77
*885 FILLER_0_6_83
*886 FILLER_0_6_85
*887 FILLER_0_7_110
*888 FILLER_0_7_113
*889 FILLER_0_7_134
*890 FILLER_0_7_15
*891 FILLER_0_7_157
*892 FILLER_0_7_161
*893 FILLER_0_7_165
*894 FILLER_0_7_169
*895 FILLER_0_7_173
*896 FILLER_0_7_178
*897 FILLER_0_7_21
*898 FILLER_0_7_25
*899 FILLER_0_7_3
*900 FILLER_0_7_33
*901 FILLER_0_7_37
*902 FILLER_0_7_43
*903 FILLER_0_7_48
*904 FILLER_0_7_55
*905 FILLER_0_7_57
*906 FILLER_0_7_67
*907 FILLER_0_7_73
*908 FILLER_0_7_77
*909 FILLER_0_7_8
*910 FILLER_0_7_82
*911 FILLER_0_7_87
*912 FILLER_0_8_103
*913 FILLER_0_8_11
*914 FILLER_0_8_119
*915 FILLER_0_8_123
*916 FILLER_0_8_129
*917 FILLER_0_8_134
*918 FILLER_0_8_139
*919 FILLER_0_8_141
*920 FILLER_0_8_163
*921 FILLER_0_8_177
*922 FILLER_0_8_186
*923 FILLER_0_8_22
*924 FILLER_0_8_29
*925 FILLER_0_8_3
*926 FILLER_0_8_36
*927 FILLER_0_8_45
*928 FILLER_0_8_52
*929 FILLER_0_8_60
*930 FILLER_0_8_7
*931 FILLER_0_8_82
*932 FILLER_0_8_87
*933 FILLER_0_8_92
*934 FILLER_0_8_97
*935 FILLER_0_9_104
*936 FILLER_0_9_109
*937 FILLER_0_9_113
*938 FILLER_0_9_118
*939 FILLER_0_9_131
*940 FILLER_0_9_137
*941 FILLER_0_9_140
*942 FILLER_0_9_150
*943 FILLER_0_9_158
*944 FILLER_0_9_166
*945 FILLER_0_9_169
*946 FILLER_0_9_17
*947 FILLER_0_9_175
*948 FILLER_0_9_181
*949 FILLER_0_9_189
*950 FILLER_0_9_28
*951 FILLER_0_9_3
*952 FILLER_0_9_38
*953 FILLER_0_9_45
*954 FILLER_0_9_51
*955 FILLER_0_9_55
*956 FILLER_0_9_57
*957 FILLER_0_9_64
*958 FILLER_0_9_7
*959 FILLER_0_9_77
*960 FILLER_0_9_81
*961 FILLER_0_9_88
*962 FILLER_0_9_97
*963 PHY_0
*964 PHY_1
*965 PHY_10
*966 PHY_11
*967 PHY_12
*968 PHY_13
*969 PHY_14
*970 PHY_15
*971 PHY_16
*972 PHY_17
*973 PHY_18
*974 PHY_19
*975 PHY_2
*976 PHY_20
*977 PHY_21
*978 PHY_22
*979 PHY_23
*980 PHY_24
*981 PHY_25
*982 PHY_26
*983 PHY_27
*984 PHY_28
*985 PHY_29
*986 PHY_3
*987 PHY_30
*988 PHY_31
*989 PHY_32
*990 PHY_33
*991 PHY_34
*992 PHY_35
*993 PHY_36
*994 PHY_37
*995 PHY_38
*996 PHY_39
*997 PHY_4
*998 PHY_40
*999 PHY_41
*1000 PHY_42
*1001 PHY_43
*1002 PHY_44
*1003 PHY_45
*1004 PHY_5
*1005 PHY_6
*1006 PHY_7
*1007 PHY_8
*1008 PHY_9
*1009 TAP_100
*1010 TAP_101
*1011 TAP_102
*1012 TAP_103
*1013 TAP_104
*1014 TAP_105
*1015 TAP_106
*1016 TAP_107
*1017 TAP_108
*1018 TAP_109
*1019 TAP_110
*1020 TAP_111
*1021 TAP_112
*1022 TAP_113
*1023 TAP_114
*1024 TAP_115
*1025 TAP_116
*1026 TAP_117
*1027 TAP_118
*1028 TAP_119
*1029 TAP_120
*1030 TAP_46
*1031 TAP_47
*1032 TAP_48
*1033 TAP_49
*1034 TAP_50
*1035 TAP_51
*1036 TAP_52
*1037 TAP_53
*1038 TAP_54
*1039 TAP_55
*1040 TAP_56
*1041 TAP_57
*1042 TAP_58
*1043 TAP_59
*1044 TAP_60
*1045 TAP_61
*1046 TAP_62
*1047 TAP_63
*1048 TAP_64
*1049 TAP_65
*1050 TAP_66
*1051 TAP_67
*1052 TAP_68
*1053 TAP_69
*1054 TAP_70
*1055 TAP_71
*1056 TAP_72
*1057 TAP_73
*1058 TAP_74
*1059 TAP_75
*1060 TAP_76
*1061 TAP_77
*1062 TAP_78
*1063 TAP_79
*1064 TAP_80
*1065 TAP_81
*1066 TAP_82
*1067 TAP_83
*1068 TAP_84
*1069 TAP_85
*1070 TAP_86
*1071 TAP_87
*1072 TAP_88
*1073 TAP_89
*1074 TAP_90
*1075 TAP_91
*1076 TAP_92
*1077 TAP_93
*1078 TAP_94
*1079 TAP_95
*1080 TAP_96
*1081 TAP_97
*1082 TAP_98
*1083 TAP_99
*1084 _182_
*1085 _183_
*1086 _184_
*1087 _185_
*1088 _186_
*1089 _187_
*1090 _188_
*1091 _189_
*1092 _190_
*1093 _191_
*1094 _192_
*1095 _193_
*1096 _194_
*1097 _195_
*1098 _196_
*1099 _197_
*1100 _198_
*1101 _199_
*1102 _200_
*1103 _201_
*1104 _202_
*1105 _203_
*1106 _204_
*1107 _205_
*1108 _206_
*1109 _207_
*1110 _208_
*1111 _209_
*1112 _210_
*1113 _211_
*1114 _212_
*1115 _213_
*1116 _214_
*1117 _215_
*1118 _216_
*1119 _217_
*1120 _218_
*1121 _219_
*1122 _220_
*1123 _221_
*1124 _222_
*1125 _223_
*1126 _224_
*1127 _225_
*1128 _226_
*1129 _227_
*1130 _228_
*1131 _229_
*1132 _230_
*1133 _231_
*1134 _232_
*1135 _233_
*1136 _234_
*1137 _235_
*1138 _236_
*1139 _237_
*1140 _238_
*1141 _239_
*1142 _240_
*1143 _241_
*1144 _242_
*1145 _243_
*1146 _244_
*1147 _245_
*1148 _246_
*1149 _247_
*1150 _248_
*1151 _249_
*1152 _250_
*1153 _251_
*1154 _252_
*1155 _253_
*1156 _254_
*1157 _255_
*1158 _256_
*1159 _257_
*1160 _258_
*1161 _259_
*1162 _260_
*1163 _261_
*1164 _262_
*1165 _263_
*1166 _264_
*1167 _265_
*1168 _266_
*1169 _267_
*1170 _268_
*1171 _269_
*1172 _270_
*1173 _271_
*1174 _272_
*1175 _273_
*1176 _274_
*1177 _275_
*1178 _276_
*1179 _277_
*1180 _278_
*1181 _279_
*1182 _280_
*1183 _281_
*1184 _282_
*1185 _283_
*1186 _284_
*1187 _285_
*1188 _286_
*1189 _287_
*1190 _288_
*1191 _289_
*1192 _290_
*1193 _291_
*1194 _292_
*1195 _293_
*1196 _294_
*1197 _295_
*1198 _296_
*1199 _297_
*1200 _298_
*1201 _299_
*1202 _300_
*1203 _301_
*1204 _302_
*1205 _303_
*1206 _304_
*1207 _305_
*1208 _306_
*1209 _307_
*1210 _308_
*1211 _309_
*1212 _310_
*1213 _311_
*1214 _312_
*1215 _313_
*1216 _314_
*1217 _315_
*1218 _316_
*1219 _317_
*1220 _318_
*1221 _319_
*1222 _320_
*1223 _321_
*1224 _322_
*1225 _323_
*1226 _324_
*1227 _325_
*1228 _326_
*1229 _327_
*1230 _328_
*1231 _329_
*1232 _330_
*1233 _331_
*1234 _332_
*1235 _333_
*1236 _334_
*1237 _335_
*1238 _336_
*1239 _337_
*1240 _338_
*1241 _339_
*1242 _340_
*1243 _341_
*1244 _342_
*1245 _343_
*1246 _344_
*1247 _345_
*1248 _346_
*1249 _347_
*1250 _348_
*1251 _349_
*1252 _350_
*1253 _351_
*1254 _352_
*1255 _353_
*1256 _354_
*1257 _355_
*1258 _356_
*1259 _357_
*1260 _358_
*1261 _359_
*1262 _360_
*1263 _361_
*1264 _362_
*1265 _363_
*1266 _364_
*1267 _365_
*1268 _366_
*1269 _367_
*1270 _368_
*1271 _369_
*1272 _370_
*1273 _371_
*1274 _372_
*1275 _373_
*1276 _374_
*1277 _375_
*1278 _376_
*1279 _377_
*1280 _378_
*1281 _379_
*1282 _380_
*1283 _381_
*1284 _382_
*1285 _383_
*1286 _384_
*1287 _385_
*1288 _386_
*1289 _387_
*1290 _388_
*1291 _389_
*1292 _390_
*1293 _391_
*1294 _392_
*1295 _393_
*1296 _394_
*1297 _395_
*1298 _396_
*1299 _397_
*1300 _398_
*1301 _399_
*1302 _400_
*1303 _401_
*1304 _402_
*1305 _403_
*1306 _404_
*1307 _405_
*1308 _406_
*1309 _407_
*1310 _408_
*1311 _409_
*1312 _410_
*1313 _411_
*1314 _412_
*1315 _413_
*1316 _414_
*1317 fanout1
*1318 fanout10
*1319 fanout11
*1320 fanout12
*1321 fanout13
*1322 fanout14
*1323 fanout15
*1324 fanout16
*1325 fanout17
*1326 fanout18
*1327 fanout19
*1328 fanout2
*1329 fanout20
*1330 fanout21
*1331 fanout22
*1332 fanout23
*1333 fanout24
*1334 fanout25
*1335 fanout26
*1336 fanout27
*1337 fanout28
*1338 fanout29
*1339 fanout3
*1340 fanout30
*1341 fanout4
*1342 fanout5
*1343 fanout6
*1344 fanout7
*1345 fanout8
*1346 fanout9
*1347 ringosc\.dstage\[0\]\.id\.delaybuf0
*1348 ringosc\.dstage\[0\]\.id\.delaybuf1
*1349 ringosc\.dstage\[0\]\.id\.delayen0
*1350 ringosc\.dstage\[0\]\.id\.delayen1
*1351 ringosc\.dstage\[0\]\.id\.delayenb0
*1352 ringosc\.dstage\[0\]\.id\.delayenb1
*1353 ringosc\.dstage\[0\]\.id\.delayint0
*1354 ringosc\.dstage\[10\]\.id\.delaybuf0
*1355 ringosc\.dstage\[10\]\.id\.delaybuf1
*1356 ringosc\.dstage\[10\]\.id\.delayen0
*1357 ringosc\.dstage\[10\]\.id\.delayen1
*1358 ringosc\.dstage\[10\]\.id\.delayenb0
*1359 ringosc\.dstage\[10\]\.id\.delayenb1
*1360 ringosc\.dstage\[10\]\.id\.delayint0
*1361 ringosc\.dstage\[11\]\.id\.delaybuf0
*1362 ringosc\.dstage\[11\]\.id\.delaybuf1
*1363 ringosc\.dstage\[11\]\.id\.delayen0
*1364 ringosc\.dstage\[11\]\.id\.delayen1
*1365 ringosc\.dstage\[11\]\.id\.delayenb0
*1366 ringosc\.dstage\[11\]\.id\.delayenb1
*1367 ringosc\.dstage\[11\]\.id\.delayint0
*1368 ringosc\.dstage\[1\]\.id\.delaybuf0
*1369 ringosc\.dstage\[1\]\.id\.delaybuf1
*1370 ringosc\.dstage\[1\]\.id\.delayen0
*1371 ringosc\.dstage\[1\]\.id\.delayen1
*1372 ringosc\.dstage\[1\]\.id\.delayenb0
*1373 ringosc\.dstage\[1\]\.id\.delayenb1
*1374 ringosc\.dstage\[1\]\.id\.delayint0
*1375 ringosc\.dstage\[2\]\.id\.delaybuf0
*1376 ringosc\.dstage\[2\]\.id\.delaybuf1
*1377 ringosc\.dstage\[2\]\.id\.delayen0
*1378 ringosc\.dstage\[2\]\.id\.delayen1
*1379 ringosc\.dstage\[2\]\.id\.delayenb0
*1380 ringosc\.dstage\[2\]\.id\.delayenb1
*1381 ringosc\.dstage\[2\]\.id\.delayint0
*1382 ringosc\.dstage\[3\]\.id\.delaybuf0
*1383 ringosc\.dstage\[3\]\.id\.delaybuf1
*1384 ringosc\.dstage\[3\]\.id\.delayen0
*1385 ringosc\.dstage\[3\]\.id\.delayen1
*1386 ringosc\.dstage\[3\]\.id\.delayenb0
*1387 ringosc\.dstage\[3\]\.id\.delayenb1
*1388 ringosc\.dstage\[3\]\.id\.delayint0
*1389 ringosc\.dstage\[4\]\.id\.delaybuf0
*1390 ringosc\.dstage\[4\]\.id\.delaybuf1
*1391 ringosc\.dstage\[4\]\.id\.delayen0
*1392 ringosc\.dstage\[4\]\.id\.delayen1
*1393 ringosc\.dstage\[4\]\.id\.delayenb0
*1394 ringosc\.dstage\[4\]\.id\.delayenb1
*1395 ringosc\.dstage\[4\]\.id\.delayint0
*1396 ringosc\.dstage\[5\]\.id\.delaybuf0
*1397 ringosc\.dstage\[5\]\.id\.delaybuf1
*1398 ringosc\.dstage\[5\]\.id\.delayen0
*1399 ringosc\.dstage\[5\]\.id\.delayen1
*1400 ringosc\.dstage\[5\]\.id\.delayenb0
*1401 ringosc\.dstage\[5\]\.id\.delayenb1
*1402 ringosc\.dstage\[5\]\.id\.delayint0
*1403 ringosc\.dstage\[6\]\.id\.delaybuf0
*1404 ringosc\.dstage\[6\]\.id\.delaybuf1
*1405 ringosc\.dstage\[6\]\.id\.delayen0
*1406 ringosc\.dstage\[6\]\.id\.delayen1
*1407 ringosc\.dstage\[6\]\.id\.delayenb0
*1408 ringosc\.dstage\[6\]\.id\.delayenb1
*1409 ringosc\.dstage\[6\]\.id\.delayint0
*1410 ringosc\.dstage\[7\]\.id\.delaybuf0
*1411 ringosc\.dstage\[7\]\.id\.delaybuf1
*1412 ringosc\.dstage\[7\]\.id\.delayen0
*1413 ringosc\.dstage\[7\]\.id\.delayen1
*1414 ringosc\.dstage\[7\]\.id\.delayenb0
*1415 ringosc\.dstage\[7\]\.id\.delayenb1
*1416 ringosc\.dstage\[7\]\.id\.delayint0
*1417 ringosc\.dstage\[8\]\.id\.delaybuf0
*1418 ringosc\.dstage\[8\]\.id\.delaybuf1
*1419 ringosc\.dstage\[8\]\.id\.delayen0
*1420 ringosc\.dstage\[8\]\.id\.delayen1
*1421 ringosc\.dstage\[8\]\.id\.delayenb0
*1422 ringosc\.dstage\[8\]\.id\.delayenb1
*1423 ringosc\.dstage\[8\]\.id\.delayint0
*1424 ringosc\.dstage\[9\]\.id\.delaybuf0
*1425 ringosc\.dstage\[9\]\.id\.delaybuf1
*1426 ringosc\.dstage\[9\]\.id\.delayen0
*1427 ringosc\.dstage\[9\]\.id\.delayen1
*1428 ringosc\.dstage\[9\]\.id\.delayenb0
*1429 ringosc\.dstage\[9\]\.id\.delayenb1
*1430 ringosc\.dstage\[9\]\.id\.delayint0
*1431 ringosc\.ibufp00
*1432 ringosc\.ibufp01
*1433 ringosc\.ibufp10
*1434 ringosc\.ibufp11
*1435 ringosc\.iss\.const1
*1436 ringosc\.iss\.ctrlen0
*1437 ringosc\.iss\.delaybuf0
*1438 ringosc\.iss\.delayen0
*1439 ringosc\.iss\.delayen1
*1440 ringosc\.iss\.delayenb0
*1441 ringosc\.iss\.delayenb1
*1442 ringosc\.iss\.delayint0
*1443 ringosc\.iss\.reseten0

*PORTS
clockp[0] O
clockp[1] O
dco I
div[0] I
div[1] I
div[2] I
div[3] I
div[4] I
enable I
ext_trim[0] I
ext_trim[10] I
ext_trim[11] I
ext_trim[12] I
ext_trim[13] I
ext_trim[14] I
ext_trim[15] I
ext_trim[16] I
ext_trim[17] I
ext_trim[18] I
ext_trim[19] I
ext_trim[1] I
ext_trim[20] I
ext_trim[21] I
ext_trim[22] I
ext_trim[23] I
ext_trim[24] I
ext_trim[25] I
ext_trim[2] I
ext_trim[3] I
ext_trim[4] I
ext_trim[5] I
ext_trim[6] I
ext_trim[7] I
ext_trim[8] I
ext_trim[9] I
osc I
resetb I

*D_NET *3 0.0010083
*CONN
*P clockp[0] O
*I *1316:X O *D sky130_fd_sc_hd__buf_2
*CAP
1 clockp[0] 0.000476001
2 *1316:X 0.000476001
3 clockp[0] clockp[1] 0
4 clockp[0] *1316:A 5.62995e-05
*RES
1 *1316:X clockp[0] 22.0667 
*END

*D_NET *4 0.00698696
*CONN
*P clockp[1] O
*I *1434:Y O *D sky130_fd_sc_hd__inv_6
*CAP
1 clockp[1] 0.000779793
2 *1434:Y 0.00132658
3 *4:10 0.00210637
4 clockp[1] *6:13 0
5 *4:10 *1093:A0 0.000744563
6 *4:10 *1093:S 0.000325264
7 *4:10 *1097:A1 2.06827e-05
8 *4:10 *1116:A2 6.27272e-06
9 *4:10 *1116:B1 0
10 *4:10 *1136:A3 0
11 *4:10 *1136:B1 0
12 *4:10 *1149:D 5.33882e-05
13 *4:10 *1201:A1 6.95205e-05
14 *4:10 *1311:RESET_B 0
15 *4:10 *1351:TE_B 0.00012401
16 *4:10 *5:23 0.000239712
17 *4:10 *102:10 0.000172375
18 *4:10 *228:21 5.84171e-05
19 *4:10 *232:10 0.00012401
20 *4:10 *232:23 0.000836002
21 clockp[0] clockp[1] 0
*RES
1 *1434:Y *4:10 46.8446 
2 *4:10 clockp[1] 5.7036 
*END

*D_NET *5 0.0118693
*CONN
*P dco I
*I *1332:A I *D sky130_fd_sc_hd__dlymetal6s2s_1
*I *1340:A I *D sky130_fd_sc_hd__buf_1
*CAP
1 dco 0.000593795
2 *1332:A 0.000346241
3 *1340:A 0.000508829
4 *5:23 0.00266617
5 *5:13 0.00309738
6 *1332:A *1201:B1 0
7 *1332:A *1331:A 6.42095e-05
8 *1332:A *1372:TE_B 0
9 *1332:A *1434:A 8.7968e-05
10 *1332:A *260:12 0.000218734
11 *1332:A *260:49 6.7848e-05
12 *1332:A *261:27 5.33005e-05
13 *1340:A *1145:A 0.000125392
14 *1340:A *1176:A2 9.10431e-06
15 *1340:A *1179:A2_N 0
16 *1340:A *86:8 4.13496e-05
17 *1340:A *130:49 0.000746985
18 *1340:A *138:27 0
19 *1340:A *146:10 0
20 *1340:A *146:14 0.00083138
21 *1340:A *156:10 0.000121573
22 *1340:A *244:40 2.8266e-06
23 *1340:A *246:55 0.000266866
24 *1340:A *257:56 0.000191403
25 *5:13 *1136:A1 6.77303e-05
26 *5:13 *1200:A 0
27 *5:13 *1201:B1 0
28 *5:13 *1269:A 0
29 *5:23 *1155:A 0
30 *5:23 *1162:A 7.03141e-05